27
Nacl
Na    0.000000    0.000000    0.000000
Na    0.000000    0.000000    5.590000
Na    0.000000    5.590000    0.000000
Na    0.000000    5.590000    5.590000
Na    5.590000    0.000000    0.000000
Na    5.590000    0.000000    5.590000
Na    5.590000    5.590000    0.000000
Na    5.590000    5.590000    5.590000
Na    0.000000    2.795000    2.795000
Na    5.590000    2.795000    2.795000
Na    2.795000    0.000000    2.795000
Na    2.795000    5.590000    2.795000
Na    2.795000    2.795000    0.000000
Na    2.795000    2.795000    5.590000
Cl    2.795000    0.000000    0.000000
Cl    2.795000    0.000000    5.590000
Cl    2.795000    5.590000    0.000000
Cl    2.795000    5.590000    5.590000
Cl    0.000000    2.795000    0.000000
Cl    0.000000    2.795000    5.590000
Cl    5.590000    2.795000    0.000000
Cl    5.590000    2.795000    5.590000
Cl    0.000000    0.000000    2.795000
Cl    0.000000    5.590000    2.795000
Cl    5.590000    0.000000    2.795000
Cl    5.590000    5.590000    2.795000
Cl    2.795000    2.795000    2.795000
